[TITLE]

[OPTIONS]
FLOW_UNITS           CFS
INFILTRATION         GREEN_AMPT
FLOW_ROUTING         DYNWAVE
START_DATE           01/01/1990
START_TIME           00:00:00
REPORT_START_DATE    01/01/1990
REPORT_START_TIME    00:00:00
END_DATE             01/02/1990
END_TIME             00:00:00
SWEEP_START          01/01
SWEEP_END            12/31
DRY_DAYS             0
REPORT_STEP          00:01:00
WET_STEP             00:01:00
DRY_STEP             00:01:00
ROUTING_STEP         0:00:05 
ALLOW_PONDING        YES
INERTIAL_DAMPING     NONE
VARIABLE_STEP        0.50
LENGTHENING_STEP     20.0
MIN_SURFAREA         12.566
NORMAL_FLOW_LIMITED  BOTH
SKIP_STEADY_STATE    NO
FORCE_MAIN_EQUATION  H-W
LINK_OFFSETS         DEPTH
MIN_SLOPE            0

[EVAPORATION]
;;Type       Parameters
;;---------- ----------
MONTHLY      0.07   0.07   0.07   0.15   0.18   0.21   0.22   0.19   0.14   0.09   0.07   0.07  
DRY_ONLY     YES

[RAINGAGES]
;;               Rain      Time   Snow   Data      
;;Name           Type      Intrvl Catch  Source    
;;-------------- --------- ------ ------ ----------
GAGE1            VOLUME    0:15   1      TIMESERIES 10yr_AltBlock   
GAGE2            VOLUME    0:15   1      TIMESERIES 10yr_AltBlock   
GAGE3            VOLUME    0:15   1      TIMESERIES 10yr_AltBlock   
GAGE4            VOLUME    0:15   1      TIMESERIES 10yr_AltBlock   
GAGE5            VOLUME    0:15   1      TIMESERIES 10yr_AltBlock   
GAGE6            VOLUME    0:15   1      TIMESERIES 10yr_AltBlock   
GAGE7            VOLUME    0:15   1      TIMESERIES 10yr_AltBlock   
GAGE8            VOLUME    0:15   1      TIMESERIES 10yr_AltBlock   
GAGE9            VOLUME    0:15   1      TIMESERIES 10yr_AltBlock   
GAGE10           VOLUME    0:15   1      TIMESERIES 10yr_AltBlock   
GAGE11           VOLUME    0:15   1      TIMESERIES 10yr_AltBlock   
GAGE12           VOLUME    0:15   1      TIMESERIES 10yr_AltBlock   
GAGE13           VOLUME    0:15   1      TIMESERIES 10yr_AltBlock   
GAGE14           VOLUME    0:15   1      TIMESERIES 10yr_AltBlock   
GAGE15           VOLUME    0:15   1      TIMESERIES 10yr_AltBlock   
GAGE16           VOLUME    0:15   1      TIMESERIES 10yr_AltBlock   
GAGE17           VOLUME    0:15   1      TIMESERIES 10yr_AltBlock   
GAGE18           VOLUME    0:15   1      TIMESERIES 10yr_AltBlock   
GAGE19           VOLUME    0:15   1      TIMESERIES 10yr_AltBlock   
GAGE20           VOLUME    0:15   1      TIMESERIES 10yr_AltBlock   
GAGE21           VOLUME    0:15   1      TIMESERIES 10yr_AltBlock   
GAGE22           VOLUME    0:15   1      TIMESERIES 10yr_AltBlock   
GAGE23           VOLUME    0:15   1      TIMESERIES 10yr_AltBlock   
GAGE24           VOLUME    0:15   1      TIMESERIES 10yr_AltBlock   
GAGE25           VOLUME    0:15   1      TIMESERIES 10yr_AltBlock   
GAGE26           VOLUME    0:15   1      TIMESERIES 10yr_AltBlock   
GAGE27           VOLUME    0:15   1      TIMESERIES 10yr_AltBlock   
GAGE28           VOLUME    0:15   1      TIMESERIES 10yr_AltBlock   
GAGE29           VOLUME    0:15   1      TIMESERIES 10yr_AltBlock   
GAGE30           VOLUME    0:15   1      TIMESERIES 10yr_AltBlock   
GAGE31           VOLUME    0:15   1      TIMESERIES 10yr_AltBlock   
GAGE32           VOLUME    0:15   1      TIMESERIES 10yr_AltBlock   
GAGE33           VOLUME    0:15   1      TIMESERIES 10yr_AltBlock   
GAGE34           VOLUME    0:15   1      TIMESERIES 10yr_AltBlock   
GAGE35           VOLUME    0:15   1      TIMESERIES 10yr_AltBlock   
GAGE36           VOLUME    0:15   1      TIMESERIES 10yr_AltBlock   
GAGE37           VOLUME    0:15   1      TIMESERIES 10yr_AltBlock   
GAGE38           VOLUME    0:15   1      TIMESERIES 10yr_AltBlock   
GAGE39           VOLUME    0:15   1      TIMESERIES 10yr_AltBlock   
GAGE40           VOLUME    0:15   1      TIMESERIES 10yr_AltBlock   
GAGE41           VOLUME    0:15   1      TIMESERIES 10yr_AltBlock   
GAGE42           VOLUME    0:15   1      TIMESERIES 10yr_AltBlock   
GAGE43           VOLUME    0:15   1      TIMESERIES 10yr_AltBlock   
GAGE44           VOLUME    0:15   1      TIMESERIES 10yr_AltBlock   
GAGE45           VOLUME    0:15   1      TIMESERIES 10yr_AltBlock   
GAGE46           VOLUME    0:15   1      TIMESERIES 10yr_AltBlock   
GAGE47           VOLUME    0:15   1      TIMESERIES 10yr_AltBlock   
GAGE48           VOLUME    0:15   1      TIMESERIES 10yr_AltBlock   
GAGE49           VOLUME    0:15   1      TIMESERIES 10yr_AltBlock   
GAGE50           VOLUME    0:15   1      TIMESERIES 10yr_AltBlock   
GAGE51           VOLUME    0:15   1      TIMESERIES 10yr_AltBlock   
GAGE52           VOLUME    0:15   1      TIMESERIES 10yr_AltBlock   
GAGE53           VOLUME    0:15   1      TIMESERIES 10yr_AltBlock   
GAGE54           VOLUME    0:15   1      TIMESERIES 10yr_AltBlock   
GAGE55           VOLUME    0:15   1      TIMESERIES 10yr_AltBlock   
GAGE56           VOLUME    0:15   1      TIMESERIES 10yr_AltBlock   
GAGE57           VOLUME    0:15   1      TIMESERIES 10yr_AltBlock   
GAGE58           VOLUME    0:15   1      TIMESERIES 10yr_AltBlock   
GAGE59           VOLUME    0:15   1      TIMESERIES 10yr_AltBlock   
GAGE60           VOLUME    0:15   1      TIMESERIES 10yr_AltBlock   
GAGE61           VOLUME    0:15   1      TIMESERIES 10yr_AltBlock   
GAGE62           VOLUME    0:15   1      TIMESERIES 10yr_AltBlock   
GAGE63           VOLUME    0:15   1      TIMESERIES 10yr_AltBlock   
GAGE64           VOLUME    0:15   1      TIMESERIES 10yr_AltBlock   
GAGE65           VOLUME    0:15   1      TIMESERIES 10yr_AltBlock   
GAGE66           VOLUME    0:15   1      TIMESERIES 10yr_AltBlock   
GAGE67           VOLUME    0:15   1      TIMESERIES 10yr_AltBlock   
GAGE68           VOLUME    0:15   1      TIMESERIES 10yr_AltBlock   
GAGE69           VOLUME    0:15   1      TIMESERIES 10yr_AltBlock   
GAGE70           VOLUME    0:15   1      TIMESERIES 10yr_AltBlock   
GAGE71           VOLUME    0:15   1      TIMESERIES 10yr_AltBlock   
GAGE72           VOLUME    0:15   1      TIMESERIES 10yr_AltBlock   
GAGE73           VOLUME    0:15   1      TIMESERIES 10yr_AltBlock   
GAGE74           VOLUME    0:15   1      TIMESERIES 10yr_AltBlock   
GAGE75           VOLUME    0:15   1      TIMESERIES 10yr_AltBlock   
GAGE76           VOLUME    0:15   1      TIMESERIES 10yr_AltBlock   
GAGE77           VOLUME    0:15   1      TIMESERIES 10yr_AltBlock   
GAGE78           VOLUME    0:15   1      TIMESERIES 10yr_AltBlock   
GAGE79           VOLUME    0:15   1      TIMESERIES 10yr_AltBlock   
GAGE80           VOLUME    0:15   1      TIMESERIES 10yr_AltBlock   
GAGE81           VOLUME    0:15   1      TIMESERIES 10yr_AltBlock   
GAGE82           VOLUME    0:15   1      TIMESERIES 10yr_AltBlock   
GAGE83           VOLUME    0:15   1      TIMESERIES 10yr_AltBlock   
GAGE84           VOLUME    0:15   1      TIMESERIES 10yr_AltBlock   
GAGE85           VOLUME    0:15   1      TIMESERIES 10yr_AltBlock   
GAGE86           VOLUME    0:15   1      TIMESERIES 10yr_AltBlock   
GAGE87           VOLUME    0:15   1      TIMESERIES 10yr_AltBlock   
GAGE88           VOLUME    0:15   1      TIMESERIES 10yr_AltBlock   
GAGE89           VOLUME    0:15   1      TIMESERIES 10yr_AltBlock   
GAGE90           VOLUME    0:15   1      TIMESERIES 10yr_AltBlock   
GAGE91           VOLUME    0:15   1      TIMESERIES 10yr_AltBlock   
GAGE92           VOLUME    0:15   1      TIMESERIES 10yr_AltBlock   
GAGE93           VOLUME    0:15   1      TIMESERIES 10yr_AltBlock   
GAGE94           VOLUME    0:15   1      TIMESERIES 10yr_AltBlock   
GAGE95           VOLUME    0:15   1      TIMESERIES 10yr_AltBlock   
GAGE96           VOLUME    0:15   1      TIMESERIES 10yr_AltBlock   
GAGE97           VOLUME    0:15   1      TIMESERIES 10yr_AltBlock   
GAGE98           VOLUME    0:15   1      TIMESERIES 10yr_AltBlock   
GAGE99           VOLUME    0:15   1      TIMESERIES 10yr_AltBlock   
GAGE100          VOLUME    0:15   1      TIMESERIES 10yr_AltBlock   
GAGE101          VOLUME    0:15   1      TIMESERIES 10yr_AltBlock   
GAGE102          VOLUME    0:15   1      TIMESERIES 10yr_AltBlock   
GAGE103          VOLUME    0:15   1      TIMESERIES 10yr_AltBlock   
GAGE104          VOLUME    0:15   1      TIMESERIES 10yr_AltBlock   
GAGE105          VOLUME    0:15   1      TIMESERIES 10yr_AltBlock   
GAGE106          VOLUME    0:15   1      TIMESERIES 10yr_AltBlock   
GAGE107          VOLUME    0:15   1      TIMESERIES 10yr_AltBlock   
GAGE108          VOLUME    0:15   1      TIMESERIES 10yr_AltBlock   
GAGE109          VOLUME    0:15   1      TIMESERIES 10yr_AltBlock   
GAGE110          VOLUME    0:15   1      TIMESERIES 10yr_AltBlock   
GAGE111          VOLUME    0:15   1      TIMESERIES 10yr_AltBlock   
GAGE112          VOLUME    0:15   1      TIMESERIES 10yr_AltBlock   
GAGE113          VOLUME    0:15   1      TIMESERIES 10yr_AltBlock   
GAGE114          VOLUME    0:15   1      TIMESERIES 10yr_AltBlock   
GAGE115          VOLUME    0:15   1      TIMESERIES 10yr_AltBlock   
GAGE116          VOLUME    0:15   1      TIMESERIES 10yr_AltBlock   
GAGE117          VOLUME    0:15   1      TIMESERIES 10yr_AltBlock   
GAGE118          VOLUME    0:15   1      TIMESERIES 10yr_AltBlock   
GAGE119          VOLUME    0:15   1      TIMESERIES 10yr_AltBlock   
GAGE120          VOLUME    0:15   1      TIMESERIES 10yr_AltBlock   
GAGE121          VOLUME    0:15   1      TIMESERIES 10yr_AltBlock   
GAGE122          VOLUME    0:15   1      TIMESERIES 10yr_AltBlock   
GAGE123          VOLUME    0:15   1      TIMESERIES 10yr_AltBlock   
GAGE124          VOLUME    0:15   1      TIMESERIES 10yr_AltBlock   
GAGE125          VOLUME    0:15   1      TIMESERIES 10yr_AltBlock   
GAGE126          VOLUME    0:15   1      TIMESERIES 10yr_AltBlock   
GAGE127          VOLUME    0:15   1      TIMESERIES 10yr_AltBlock   
GAGE128          VOLUME    0:15   1      TIMESERIES 10yr_AltBlock   
GAGE129          VOLUME    0:15   1      TIMESERIES 10yr_AltBlock   
GAGE130          VOLUME    0:15   1      TIMESERIES 10yr_AltBlock   
GAGE131          VOLUME    0:15   1      TIMESERIES 10yr_AltBlock   
GAGE132          VOLUME    0:15   1      TIMESERIES 10yr_AltBlock   
GAGE133          VOLUME    0:15   1      TIMESERIES 10yr_AltBlock   
GAGE134          VOLUME    0:15   1      TIMESERIES 10yr_AltBlock   
GAGE135          VOLUME    0:15   1      TIMESERIES 10yr_AltBlock   
GAGE136          VOLUME    0:15   1      TIMESERIES 10yr_AltBlock   
GAGE137          VOLUME    0:15   1      TIMESERIES 10yr_AltBlock   
GAGE138          VOLUME    0:15   1      TIMESERIES 10yr_AltBlock   
GAGE139          VOLUME    0:15   1      TIMESERIES 10yr_AltBlock   
GAGE140          VOLUME    0:15   1      TIMESERIES 10yr_AltBlock   
GAGE141          VOLUME    0:15   1      TIMESERIES 10yr_AltBlock   
GAGE142          VOLUME    0:15   1      TIMESERIES 10yr_AltBlock   
GAGE143          VOLUME    0:15   1      TIMESERIES 10yr_AltBlock   
GAGE144          VOLUME    0:15   1      TIMESERIES 10yr_AltBlock   
GAGE145          VOLUME    0:15   1      TIMESERIES 10yr_AltBlock   
GAGE146          VOLUME    0:15   1      TIMESERIES 10yr_AltBlock   
GAGE147          VOLUME    0:15   1      TIMESERIES 10yr_AltBlock   
GAGE148          VOLUME    0:15   1      TIMESERIES 10yr_AltBlock   
GAGE149          VOLUME    0:15   1      TIMESERIES 10yr_AltBlock   
GAGE150          VOLUME    0:15   1      TIMESERIES 10yr_AltBlock   
GAGE151          VOLUME    0:15   1      TIMESERIES 10yr_AltBlock   
GAGE152          VOLUME    0:15   1      TIMESERIES 10yr_AltBlock   
GAGE153          VOLUME    0:15   1      TIMESERIES 10yr_AltBlock   
GAGE154          VOLUME    0:15   1      TIMESERIES 10yr_AltBlock   
GAGE155          VOLUME    0:15   1      TIMESERIES 10yr_AltBlock   
GAGE156          VOLUME    0:15   1      TIMESERIES 10yr_AltBlock   
GAGE157          VOLUME    0:15   1      TIMESERIES 10yr_AltBlock   
GAGE158          VOLUME    0:15   1      TIMESERIES 10yr_AltBlock   
GAGE159          VOLUME    0:15   1      TIMESERIES 10yr_AltBlock   
GAGE160          VOLUME    0:15   1      TIMESERIES 10yr_AltBlock   
GAGE161          VOLUME    0:15   1      TIMESERIES 10yr_AltBlock   
GAGE162          VOLUME    0:15   1      TIMESERIES 10yr_AltBlock   
GAGE163          VOLUME    0:15   1      TIMESERIES 10yr_AltBlock   
GAGE164          VOLUME    0:15   1      TIMESERIES 10yr_AltBlock   
GAGE165          VOLUME    0:15   1      TIMESERIES 10yr_AltBlock   
GAGE166          VOLUME    0:15   1      TIMESERIES 10yr_AltBlock   
GAGE167          VOLUME    0:15   1      TIMESERIES 10yr_AltBlock   
GAGE168          VOLUME    0:15   1      TIMESERIES 10yr_AltBlock   
GAGE169          VOLUME    0:15   1      TIMESERIES 10yr_AltBlock   
GAGE170          VOLUME    0:15   1      TIMESERIES 10yr_AltBlock   
GAGE171          VOLUME    0:15   1      TIMESERIES 10yr_AltBlock   
GAGE172          VOLUME    0:15   1      TIMESERIES 10yr_AltBlock   
GAGE173          VOLUME    0:15   1      TIMESERIES 10yr_AltBlock   
GAGE174          VOLUME    0:15   1      TIMESERIES 10yr_AltBlock   
GAGE175          VOLUME    0:15   1      TIMESERIES 10yr_AltBlock   
GAGE176          VOLUME    0:15   1      TIMESERIES 10yr_AltBlock   
GAGE177          VOLUME    0:15   1      TIMESERIES 10yr_AltBlock   
GAGE178          VOLUME    0:15   1      TIMESERIES 10yr_AltBlock   
GAGE179          VOLUME    0:15   1      TIMESERIES 10yr_AltBlock   
GAGE180          VOLUME    0:15   1      TIMESERIES 10yr_AltBlock   
GAGE181          VOLUME    0:15   1      TIMESERIES 10yr_AltBlock   
GAGE182          VOLUME    0:15   1      TIMESERIES 10yr_AltBlock   
GAGE183          VOLUME    0:15   1      TIMESERIES 10yr_AltBlock   
GAGE184          VOLUME    0:15   1      TIMESERIES 10yr_AltBlock   
GAGE185          VOLUME    0:15   1      TIMESERIES 10yr_AltBlock   
GAGE186          VOLUME    0:15   1      TIMESERIES 10yr_AltBlock   
GAGE187          VOLUME    0:15   1      TIMESERIES 10yr_AltBlock   
GAGE188          VOLUME    0:15   1      TIMESERIES 10yr_AltBlock   
GAGE189          VOLUME    0:15   1      TIMESERIES 10yr_AltBlock   
GAGE190          VOLUME    0:15   1      TIMESERIES 10yr_AltBlock   
GAGE191          VOLUME    0:15   1      TIMESERIES 10yr_AltBlock   
GAGE192          VOLUME    0:15   1      TIMESERIES 10yr_AltBlock   
GAGE193          VOLUME    0:15   1      TIMESERIES 10yr_AltBlock   
GAGE194          VOLUME    0:15   1      TIMESERIES 10yr_AltBlock   
GAGE195          VOLUME    0:15   1      TIMESERIES 10yr_AltBlock   
GAGE196          VOLUME    0:15   1      TIMESERIES 10yr_AltBlock   
GAGE197          VOLUME    0:15   1      TIMESERIES 10yr_AltBlock   
GAGE198          VOLUME    0:15   1      TIMESERIES 10yr_AltBlock   
GAGE199          VOLUME    0:15   1      TIMESERIES 10yr_AltBlock   
GAGE200          VOLUME    0:15   1      TIMESERIES 10yr_AltBlock   
GAGE201          VOLUME    0:15   1      TIMESERIES 10yr_AltBlock   
GAGE202          VOLUME    0:15   1      TIMESERIES 10yr_AltBlock   
GAGE203          VOLUME    0:15   1      TIMESERIES 10yr_AltBlock   
GAGE204          VOLUME    0:15   1      TIMESERIES 10yr_AltBlock   
GAGE205          VOLUME    0:15   1      TIMESERIES 10yr_AltBlock   
GAGE206          VOLUME    0:15   1      TIMESERIES 10yr_AltBlock   
GAGE207          VOLUME    0:15   1      TIMESERIES 10yr_AltBlock   
GAGE208          VOLUME    0:15   1      TIMESERIES 10yr_AltBlock   
GAGE209          VOLUME    0:15   1      TIMESERIES 10yr_AltBlock   
GAGE210          VOLUME    0:15   1      TIMESERIES 10yr_AltBlock   
GAGE211          VOLUME    0:15   1      TIMESERIES 10yr_AltBlock   
GAGE212          VOLUME    0:15   1      TIMESERIES 10yr_AltBlock   
GAGE213          VOLUME    0:15   1      TIMESERIES 10yr_AltBlock   
GAGE214          VOLUME    0:15   1      TIMESERIES 10yr_AltBlock   
GAGE215          VOLUME    0:15   1      TIMESERIES 10yr_AltBlock   
GAGE216          VOLUME    0:15   1      TIMESERIES 10yr_AltBlock   
GAGE217          VOLUME    0:15   1      TIMESERIES 10yr_AltBlock   
GAGE218          VOLUME    0:15   1      TIMESERIES 10yr_AltBlock   
GAGE219          VOLUME    0:15   1      TIMESERIES 10yr_AltBlock   
GAGE220          VOLUME    0:15   1      TIMESERIES 10yr_AltBlock   
GAGE221          VOLUME    0:15   1      TIMESERIES 10yr_AltBlock   
GAGE222          VOLUME    0:15   1      TIMESERIES 10yr_AltBlock   
GAGE223          VOLUME    0:15   1      TIMESERIES 10yr_AltBlock   
GAGE224          VOLUME    0:15   1      TIMESERIES 10yr_AltBlock   
GAGE225          VOLUME    0:15   1      TIMESERIES 10yr_AltBlock   
GAGE226          VOLUME    0:15   1      TIMESERIES 10yr_AltBlock   
GAGE227          VOLUME    0:15   1      TIMESERIES 10yr_AltBlock   
GAGE228          VOLUME    0:15   1      TIMESERIES 10yr_AltBlock   
GAGE229          VOLUME    0:15   1      TIMESERIES 10yr_AltBlock   
GAGE230          VOLUME    0:15   1      TIMESERIES 10yr_AltBlock   
GAGE231          VOLUME    0:15   1      TIMESERIES 10yr_AltBlock   
GAGE232          VOLUME    0:15   1      TIMESERIES 10yr_AltBlock   
GAGE233          VOLUME    0:15   1      TIMESERIES 10yr_AltBlock   
GAGE234          VOLUME    0:15   1      TIMESERIES 10yr_AltBlock   
GAGE235          VOLUME    0:15   1      TIMESERIES 10yr_AltBlock   
GAGE236          VOLUME    0:15   1      TIMESERIES 10yr_AltBlock   
GAGE237          VOLUME    0:15   1      TIMESERIES 10yr_AltBlock   
GAGE238          VOLUME    0:15   1      TIMESERIES 10yr_AltBlock   
GAGE239          VOLUME    0:15   1      TIMESERIES 10yr_AltBlock   
GAGE240          VOLUME    0:15   1      TIMESERIES 10yr_AltBlock   
GAGE241          VOLUME    0:15   1      TIMESERIES 10yr_AltBlock   
GAGE242          VOLUME    0:15   1      TIMESERIES 10yr_AltBlock   
GAGE243          VOLUME    0:15   1      TIMESERIES 10yr_AltBlock   
GAGE244          VOLUME    0:15   1      TIMESERIES 10yr_AltBlock   
GAGE245          VOLUME    0:15   1      TIMESERIES 10yr_AltBlock   
GAGE246          VOLUME    0:15   1      TIMESERIES 10yr_AltBlock   
GAGE247          VOLUME    0:15   1      TIMESERIES 10yr_AltBlock   
GAGE248          VOLUME    0:15   1      TIMESERIES 10yr_AltBlock   
GAGE249          VOLUME    0:15   1      TIMESERIES 10yr_AltBlock   
GAGE250          VOLUME    0:15   1      TIMESERIES 10yr_AltBlock   
GAGE251          VOLUME    0:15   1      TIMESERIES 10yr_AltBlock   
GAGE252          VOLUME    0:15   1      TIMESERIES 10yr_AltBlock   
GAGE253          VOLUME    0:15   1      TIMESERIES 10yr_AltBlock   
GAGE254          VOLUME    0:15   1      TIMESERIES 10yr_AltBlock   
GAGE255          VOLUME    0:15   1      TIMESERIES 10yr_AltBlock   
GAGE256          VOLUME    0:15   1      TIMESERIES 10yr_AltBlock   
GAGE257          VOLUME    0:15   1      TIMESERIES 10yr_AltBlock   
GAGE258          VOLUME    0:15   1      TIMESERIES 10yr_AltBlock   
GAGE259          VOLUME    0:15   1      TIMESERIES 10yr_AltBlock   
GAGE260          VOLUME    0:15   1      TIMESERIES 10yr_AltBlock   
GAGE261          VOLUME    0:15   1      TIMESERIES 10yr_AltBlock   
GAGE262          VOLUME    0:15   1      TIMESERIES 10yr_AltBlock   
GAGE263          VOLUME    0:15   1      TIMESERIES 10yr_AltBlock   
GAGE264          VOLUME    0:15   1      TIMESERIES 10yr_AltBlock   
GAGE265          VOLUME    0:15   1      TIMESERIES 10yr_AltBlock   
GAGE266          VOLUME    0:15   1      TIMESERIES 10yr_AltBlock   
GAGE267          VOLUME    0:15   1      TIMESERIES 10yr_AltBlock   
GAGE268          VOLUME    0:15   1      TIMESERIES 10yr_AltBlock   
GAGE269          VOLUME    0:15   1      TIMESERIES 10yr_AltBlock   
GAGE270          VOLUME    0:15   1      TIMESERIES 10yr_AltBlock   
GAGE271          VOLUME    0:15   1      TIMESERIES 10yr_AltBlock   
GAGE272          VOLUME    0:15   1      TIMESERIES 10yr_AltBlock   
GAGE273          VOLUME    0:15   1      TIMESERIES 10yr_AltBlock   
GAGE274          VOLUME    0:15   1      TIMESERIES 10yr_AltBlock   
GAGE275          VOLUME    0:15   1      TIMESERIES 10yr_AltBlock   
GAGE276          VOLUME    0:15   1      TIMESERIES 10yr_AltBlock   
GAGE277          VOLUME    0:15   1      TIMESERIES 10yr_AltBlock   
GAGE278          VOLUME    0:15   1      TIMESERIES 10yr_AltBlock   
GAGE279          VOLUME    0:15   1      TIMESERIES 10yr_AltBlock   
GAGE280          VOLUME    0:15   1      TIMESERIES 10yr_AltBlock   
GAGE281          VOLUME    0:15   1      TIMESERIES 10yr_AltBlock   
GAGE282          VOLUME    0:15   1      TIMESERIES 10yr_AltBlock   
GAGE283          VOLUME    0:15   1      TIMESERIES 10yr_AltBlock   
GAGE284          VOLUME    0:15   1      TIMESERIES 10yr_AltBlock   
GAGE285          VOLUME    0:15   1      TIMESERIES 10yr_AltBlock   
GAGE286          VOLUME    0:15   1      TIMESERIES 10yr_AltBlock   
GAGE287          VOLUME    0:15   1      TIMESERIES 10yr_AltBlock   
GAGE288          VOLUME    0:15   1      TIMESERIES 10yr_AltBlock   
GAGE289          VOLUME    0:15   1      TIMESERIES 10yr_AltBlock   
GAGE290          VOLUME    0:15   1      TIMESERIES 10yr_AltBlock   
GAGE291          VOLUME    0:15   1      TIMESERIES 10yr_AltBlock   
GAGE292          VOLUME    0:15   1      TIMESERIES 10yr_AltBlock   
GAGE293          VOLUME    0:15   1      TIMESERIES 10yr_AltBlock   
GAGE294          VOLUME    0:15   1      TIMESERIES 10yr_AltBlock   
GAGE295          VOLUME    0:15   1      TIMESERIES 10yr_AltBlock   
GAGE296          VOLUME    0:15   1      TIMESERIES 10yr_AltBlock   
GAGE297          VOLUME    0:15   1      TIMESERIES 10yr_AltBlock   
GAGE298          VOLUME    0:15   1      TIMESERIES 10yr_AltBlock   
GAGE299          VOLUME    0:15   1      TIMESERIES 10yr_AltBlock   
GAGE300          VOLUME    0:15   1      TIMESERIES 10yr_AltBlock   
GAGE301          VOLUME    0:15   1      TIMESERIES 10yr_AltBlock   
GAGE302          VOLUME    0:15   1      TIMESERIES 10yr_AltBlock   
GAGE303          VOLUME    0:15   1      TIMESERIES 10yr_AltBlock   
GAGE304          VOLUME    0:15   1      TIMESERIES 10yr_AltBlock   
GAGE305          VOLUME    0:15   1      TIMESERIES 10yr_AltBlock   
GAGE306          VOLUME    0:15   1      TIMESERIES 10yr_AltBlock   
GAGE307          VOLUME    0:15   1      TIMESERIES 10yr_AltBlock   
GAGE308          VOLUME    0:15   1      TIMESERIES 10yr_AltBlock   
GAGE309          VOLUME    0:15   1      TIMESERIES 10yr_AltBlock   
GAGE310          VOLUME    0:15   1      TIMESERIES 10yr_AltBlock   
GAGE311          VOLUME    0:15   1      TIMESERIES 10yr_AltBlock   
GAGE312          VOLUME    0:15   1      TIMESERIES 10yr_AltBlock   
GAGE313          VOLUME    0:15   1      TIMESERIES 10yr_AltBlock   
GAGE314          VOLUME    0:15   1      TIMESERIES 10yr_AltBlock   
GAGE315          VOLUME    0:15   1      TIMESERIES 10yr_AltBlock   
GAGE316          VOLUME    0:15   1      TIMESERIES 10yr_AltBlock   
GAGE317          VOLUME    0:15   1      TIMESERIES 10yr_AltBlock   
GAGE318          VOLUME    0:15   1      TIMESERIES 10yr_AltBlock   
GAGE319          VOLUME    0:15   1      TIMESERIES 10yr_AltBlock   
GAGE320          VOLUME    0:15   1      TIMESERIES 10yr_AltBlock   
GAGE321          VOLUME    0:15   1      TIMESERIES 10yr_AltBlock   
GAGE322          VOLUME    0:15   1      TIMESERIES 10yr_AltBlock   
GAGE323          VOLUME    0:15   1      TIMESERIES 10yr_AltBlock   
GAGE324          VOLUME    0:15   1      TIMESERIES 10yr_AltBlock   
GAGE325          VOLUME    0:15   1      TIMESERIES 10yr_AltBlock   
GAGE326          VOLUME    0:15   1      TIMESERIES 10yr_AltBlock   
GAGE327          VOLUME    0:15   1      TIMESERIES 10yr_AltBlock   
GAGE328          VOLUME    0:15   1      TIMESERIES 10yr_AltBlock   
GAGE329          VOLUME    0:15   1      TIMESERIES 10yr_AltBlock   
GAGE330          VOLUME    0:15   1      TIMESERIES 10yr_AltBlock   
GAGE331          VOLUME    0:15   1      TIMESERIES 10yr_AltBlock   
GAGE332          VOLUME    0:15   1      TIMESERIES 10yr_AltBlock   
GAGE333          VOLUME    0:15   1      TIMESERIES 10yr_AltBlock   
GAGE334          VOLUME    0:15   1      TIMESERIES 10yr_AltBlock   
GAGE335          VOLUME    0:15   1      TIMESERIES 10yr_AltBlock   
GAGE336          VOLUME    0:15   1      TIMESERIES 10yr_AltBlock   
GAGE337          VOLUME    0:15   1      TIMESERIES 10yr_AltBlock   
GAGE338          VOLUME    0:15   1      TIMESERIES 10yr_AltBlock   
GAGE339          VOLUME    0:15   1      TIMESERIES 10yr_AltBlock   
GAGE340          VOLUME    0:15   1      TIMESERIES 10yr_AltBlock   
GAGE341          VOLUME    0:15   1      TIMESERIES 10yr_AltBlock   
GAGE342          VOLUME    0:15   1      TIMESERIES 10yr_AltBlock   
GAGE343          VOLUME    0:15   1      TIMESERIES 10yr_AltBlock   
GAGE344          VOLUME    0:15   1      TIMESERIES 10yr_AltBlock   
GAGE345          VOLUME    0:15   1      TIMESERIES 10yr_AltBlock   
GAGE346          VOLUME    0:15   1      TIMESERIES 10yr_AltBlock   
GAGE347          VOLUME    0:15   1      TIMESERIES 10yr_AltBlock   
GAGE348          VOLUME    0:15   1      TIMESERIES 10yr_AltBlock   
GAGE349          VOLUME    0:15   1      TIMESERIES 10yr_AltBlock   
GAGE350          VOLUME    0:15   1      TIMESERIES 10yr_AltBlock   
GAGE351          VOLUME    0:15   1      TIMESERIES 10yr_AltBlock   
GAGE352          VOLUME    0:15   1      TIMESERIES 10yr_AltBlock   
GAGE353          VOLUME    0:15   1      TIMESERIES 10yr_AltBlock   
GAGE354          VOLUME    0:15   1      TIMESERIES 10yr_AltBlock   
GAGE355          VOLUME    0:15   1      TIMESERIES 10yr_AltBlock   
GAGE356          VOLUME    0:15   1      TIMESERIES 10yr_AltBlock   
GAGE357          VOLUME    0:15   1      TIMESERIES 10yr_AltBlock   
GAGE358          VOLUME    0:15   1      TIMESERIES 10yr_AltBlock   
GAGE359          VOLUME    0:15   1      TIMESERIES 10yr_AltBlock   
GAGE360          VOLUME    0:15   1      TIMESERIES 10yr_AltBlock   
GAGE361          VOLUME    0:15   1      TIMESERIES 10yr_AltBlock   
GAGE362          VOLUME    0:15   1      TIMESERIES 10yr_AltBlock   
GAGE363          VOLUME    0:15   1      TIMESERIES 10yr_AltBlock   
GAGE364          VOLUME    0:15   1      TIMESERIES 10yr_AltBlock   
GAGE365          VOLUME    0:15   1      TIMESERIES 10yr_AltBlock   
GAGE366          VOLUME    0:15   1      TIMESERIES 10yr_AltBlock   
GAGE367          VOLUME    0:15   1      TIMESERIES 10yr_AltBlock   
GAGE368          VOLUME    0:15   1      TIMESERIES 10yr_AltBlock   
GAGE369          VOLUME    0:15   1      TIMESERIES 10yr_AltBlock   
GAGE370          VOLUME    0:15   1      TIMESERIES 10yr_AltBlock   
GAGE371          VOLUME    0:15   1      TIMESERIES 10yr_AltBlock   
GAGE372          VOLUME    0:15   1      TIMESERIES 10yr_AltBlock   
GAGE373          VOLUME    0:15   1      TIMESERIES 10yr_AltBlock   
GAGE374          VOLUME    0:15   1      TIMESERIES 10yr_AltBlock   
GAGE375          VOLUME    0:15   1      TIMESERIES 10yr_AltBlock   
GAGE376          VOLUME    0:15   1      TIMESERIES 10yr_AltBlock   
GAGE377          VOLUME    0:15   1      TIMESERIES 10yr_AltBlock   
GAGE378          VOLUME    0:15   1      TIMESERIES 10yr_AltBlock   
GAGE379          VOLUME    0:15   1      TIMESERIES 10yr_AltBlock   
GAGE380          VOLUME    0:15   1      TIMESERIES 10yr_AltBlock   
GAGE381          VOLUME    0:15   1      TIMESERIES 10yr_AltBlock   
GAGE382          VOLUME    0:15   1      TIMESERIES 10yr_AltBlock   
GAGE383          VOLUME    0:15   1      TIMESERIES 10yr_AltBlock   
GAGE384          VOLUME    0:15   1      TIMESERIES 10yr_AltBlock   
GAGE385          VOLUME    0:15   1      TIMESERIES 10yr_AltBlock   
GAGE386          VOLUME    0:15   1      TIMESERIES 10yr_AltBlock   
GAGE387          VOLUME    0:15   1      TIMESERIES 10yr_AltBlock   
GAGE388          VOLUME    0:15   1      TIMESERIES 10yr_AltBlock   
GAGE389          VOLUME    0:15   1      TIMESERIES 10yr_AltBlock   
GAGE390          VOLUME    0:15   1      TIMESERIES 10yr_AltBlock   
GAGE391          VOLUME    0:15   1      TIMESERIES 10yr_AltBlock   
GAGE392          VOLUME    0:15   1      TIMESERIES 10yr_AltBlock   
GAGE393          VOLUME    0:15   1      TIMESERIES 10yr_AltBlock   
GAGE394          VOLUME    0:15   1      TIMESERIES 10yr_AltBlock   
GAGE395          VOLUME    0:15   1      TIMESERIES 10yr_AltBlock   
GAGE396          VOLUME    0:15   1      TIMESERIES 10yr_AltBlock   
GAGE397          VOLUME    0:15   1      TIMESERIES 10yr_AltBlock   
GAGE398          VOLUME    0:15   1      TIMESERIES 10yr_AltBlock   
GAGE399          VOLUME    0:15   1      TIMESERIES 10yr_AltBlock   
GAGE400          VOLUME    0:15   1      TIMESERIES 10yr_AltBlock   
GAGE401          VOLUME    0:15   1      TIMESERIES 10yr_AltBlock   
GAGE402          VOLUME    0:15   1      TIMESERIES 10yr_AltBlock   
GAGE403          VOLUME    0:15   1      TIMESERIES 10yr_AltBlock   
GAGE404          VOLUME    0:15   1      TIMESERIES 10yr_AltBlock   
GAGE405          VOLUME    0:15   1      TIMESERIES 10yr_AltBlock   
GAGE406          VOLUME    0:15   1      TIMESERIES 10yr_AltBlock   
GAGE407          VOLUME    0:15   1      TIMESERIES 10yr_AltBlock   
GAGE408          VOLUME    0:15   1      TIMESERIES 10yr_AltBlock   
GAGE409          VOLUME    0:15   1      TIMESERIES 10yr_AltBlock   
GAGE410          VOLUME    0:15   1      TIMESERIES 10yr_AltBlock   
GAGE411          VOLUME    0:15   1      TIMESERIES 10yr_AltBlock   
GAGE412          VOLUME    0:15   1      TIMESERIES 10yr_AltBlock   
GAGE413          VOLUME    0:15   1      TIMESERIES 10yr_AltBlock   
GAGE414          VOLUME    0:15   1      TIMESERIES 10yr_AltBlock   
GAGE415          VOLUME    0:15   1      TIMESERIES 10yr_AltBlock   
GAGE416          VOLUME    0:15   1      TIMESERIES 10yr_AltBlock   
GAGE417          VOLUME    0:15   1      TIMESERIES 10yr_AltBlock   
GAGE418          VOLUME    0:15   1      TIMESERIES 10yr_AltBlock   